new file.
new line.
add new line after reset dev.
