new file.
new line master.
new line.
new line.
add new line after reset dev.
